%chk=waterH.chk
# Opt=maxcycle=100 freq B3LYP/6-31G(d,p) em=gd3bj 

Calculated hydrogen bond

0 1
 O                  0.80130224    0.79500656    0.02098278
 H                  1.76130224    0.79500656    0.02098278
 H                  0.48084766    1.69994239    0.02098278
 F                 -1.03045033   -1.00624035    0.25110637
 H                 -0.41521314   -0.37946191    0.30616985

